Circuit: * C:\Users\HP\Desktop\IE E-C\ELECTRONICS\L3.asc


Date: Wed Jan 20 19:50:33 2021
Total elapsed time: 0.047 seconds.

tnom = 27
temp = 27
method = trap
totiter = 0
traniter = 0
tranpoints = 0
accept = 0
rejected = 0
matrix size = 5
fillins = 0
solver = Normal

